test/data/three_phase/ieee_four_bus_with_triplex/result.csv
# result.csv run at 2000-01-01 00:00:00 EST on 21 powerflow objects (not all are nodes)
node_name,voltA_real,voltA_imag,voltB_real,voltB_imag,voltC_real,voltC_imag
node1,7199.558000,0.000000,-3599.779000,-6235.000000,-3599.779000,6235.000000
node2,7198.804094,-0.875841,-3600.076284,-6235.424695,-3600.038899,6234.684293
node3,2400.899733,-1.510846,-1200.987758,-2080.141679,-1200.975286,2079.894680
node4,2398.074853,-4.792619,-1202.101681,-2081.733009,-1201.949125,2078.711726
triplex_node5,119.001096,-0.404465,119.559043,-0.431677,0.000000,0.000000
triplex_node6,117.545411,-0.509147,120.149688,-0.206217,0.000000,0.000000
